matlab code/data26.m
clear all
linedata = [    1            2         0.0005       0.0048       0.0300       1
                1           18        0.0013       0.0110       0.0600       1
                2            3         0.0014       0.0513       0.0500      0.960
                2            7         0.0103       0.0586       0.0180       1
                2            8         0.0074       0.0321       0.0390       1
                2           13        0.0035       0.0967       0.0250      0.960
                2           26        0.0323       0.1967       0.0000       1
                3           13        0.0007       0.0054       0.0005      1.017    
                4           8          0.0008       0.0240       0.0001      1.050
                4           12        0.0016       0.0207       0.0150      1.050
                5           6          0.0069       0.0300       0.0990       1
                6           7          0.0053       0.0306       0.0010       1
                6          11         0.0097       0.0570       0.0001       1
                6             18                     0.0037       0.0222       0.0012       1
       6          19         0.0035       0.0660       0.0450      0.950
       6          21         0.0050       0.0900       0.0226       1
       7           8          0.0012       0.0069       0.0001       1
       7           9          0.0009       0.0429       0.0250      0.950
       8          12         0.0020       0.0180       0.0200       1
       9          10         0.0010       0.0493       0.0010       1
       10        12         0.0024       0.0132       0.0100       1
       10        19         0.0547       0.2360       0.0000       1
       10        20         0.0066       0.0160       0.0010       1
       10        22         0.0069       0.0298       0.0050       1
       11        25         0.0960       0.2700       0.0100       1
       11        26         0.0165       0.0970       0.0040       1
       12        14         0.0327       0.0802       0.0000       1
       12        15         0.0180       0.0598       0.0000       1
       13        14         0.0046       0.0271      0.0010        1
       13        15         0.0116       0.0610      0.0000        1
       13        16         0.0179       0.0888      0.0010        1
       14        15         0.0069       0.0382      0.0000        1
       15        16         0.0209       0.0512      0.0000        1
       16        17         0.0990       0.0600      0.0000        1
       16        20         0.0239       0.0585      0.0000        1
       17        18         0.0032       0.0600      0.0380        1
       17        21         0.2290       0.4450      0.0000        1
       19        23         0.0300       0.1310      0.0000        1
       19        24         0.0300       0.1250      0.0002        1
       19        25         0.1190       0.2249      0.0004        1      
       20        21         0.0657       0.1570      0.0000        1
       20        22         0.0150       0.0366      0.0000        1
       21        24         0.0476       0.1510      0.0000        1
       22        23         0.0290       0.0990      0.0000        1
       22        24         0.0310       0.0880      0.0000        1
       23        25         0.0987       0.1168      0.0000        1  ];


busdata= [  1            1           1.025       0             51.0        41.0           0.0         0.0           0           0         4
            2            2           1.020       0             22.00      15.0          79.0        0.0         40        250       0
            3            2           1.025        0            64.0        50.0          20.0        0.0         40        150       0
            4            2          1.050        0            25.00      10.0          100         0.0         40         80         2
            5            2           1.045        0            50.00      30.0         300.0      0.0         40         160      5
            6            0            1.0           0            76.00      29.0           0.0          0.0         0           0          2
            7           0            1.0           0             0.0          0.0             0.0         0.0         0           0         0
            8           0            1.0           0             0.0          0.0             0.0         0.0         0           0         0
            9            0            1.0           0            89.0        50.0            0.0         0.0         0           0          0
            10          0            1.0           0             0.0          0.0             0.0         0.0          0           0          0
            11         0              1.0          0           25.0       15.0              0.0         0.0          0           0      1.5
            12         0              1.0          0           89.0       48.0              0.0         0.0          0           0         2
            13         0              1.0          0            31.0       15.0              0              0          0           0         0
            14          0             1.0          0            24.0       12.0               0              0          0           0         0
            15        0              1.0          0           70.0       31.0                0              0          0           0      0.5
            16          0             1.0          0            55.0       27.0               0              0          0           0         0
            17          0            1.0           0            78.0       38.0             0              0          0           0         0
            18          0            1.0           0            153.0     67.0             0              0          0           0         0
            19          0            1.0           0            75.0       15.0             0              0          0           0         5
            20          0         1.0             0           48.0       27.0             0              0          0           0        0
            21          0         1.0             0           46.0       23.0             0              0          0           0        0
            22          0         1.0             0           45.0       22.0             0              0          0           0        0
            23          0         1.0             0           25.0       12.0             0              0          0           0        0
            24          0         1.0             0           54.0       27.0             0              0          0           0        0
            25          0         1.0             0           28.0       13.0             0              0          0           0        0
            26          2         1.015           0           40.0       20.0             60.0         0         15         50      0];